data_image0
_cell_length_a       7.841
_cell_length_b       10.06
_cell_length_c       22.693
_cell_angle_alpha    93.742
_cell_angle_beta     90
_cell_angle_gamma    90

_symmetry_space_group_name_H-M    "P 1"
_symmetry_int_tables_number       1

loop_
  _symmetry_equiv_pos_as_xyz
  'x, y, z'

loop_
  _atom_site_label
  _atom_site_occupancy
  _atom_site_fract_x
  _atom_site_fract_y
  _atom_site_fract_z
  _atom_site_thermal_displace_type
  _atom_site_B_iso_or_equiv
  _atom_site_type_symbol
  H1       1.0000 0.81192  0.27581  0.97448  Biso   1.000  H
  H2       1.0000 0.18808  0.72419  0.02552  Biso   1.000  H
  H3       1.0000 0.31192  0.22419  0.52552  Biso   1.000  H
  H4       1.0000 0.68808  0.77581  0.47448  Biso   1.000  H
  H5       1.0000 0.88039  0.41297  0.06504  Biso   1.000  H
  H6       1.0000 0.11961  0.58703  0.93496  Biso   1.000  H
  H7       1.0000 0.38039  0.08703  0.43496  Biso   1.000  H
  H8       1.0000 0.61961  0.91297  0.56504  Biso   1.000  H
  H9       1.0000 0.78513  0.64742  0.07805  Biso   1.000  H
  H10      1.0000 0.21487  0.35258  0.92195  Biso   1.000  H
  H11      1.0000 0.28513  0.85258  0.42195  Biso   1.000  H
  H12      1.0000 0.71487  0.14742  0.57805  Biso   1.000  H
  H13      1.0000 0.63478  0.83847  0.03927  Biso   1.000  H
  H14      1.0000 0.36522  0.16153  0.96073  Biso   1.000  H
  H15      1.0000 0.13478  0.66153  0.46073  Biso   1.000  H
  H16      1.0000 0.86522  0.33847  0.53927  Biso   1.000  H
  H17      1.0000 0.47063  0.93749  0.95877  Biso   1.000  H
  H18      1.0000 0.52937  0.06251  0.04123  Biso   1.000  H
  H19      1.0000 0.97063  0.56251  0.54123  Biso   1.000  H
  H20      1.0000 0.02937  0.43749  0.45877  Biso   1.000  H
  H21      1.0000 0.40392  0.80221  0.86703  Biso   1.000  H
  H22      1.0000 0.59608  0.19779  0.13297  Biso   1.000  H
  H23      1.0000 0.90392  0.69779  0.63297  Biso   1.000  H
  H24      1.0000 0.09608  0.30221  0.36703  Biso   1.000  H
  H25      1.0000 0.41073  0.59448  0.80680  Biso   1.000  H
  H26      1.0000 0.58927  0.40552  0.19320  Biso   1.000  H
  H27      1.0000 0.91073  0.90552  0.69320  Biso   1.000  H
  H28      1.0000 0.08927  0.09448  0.30680  Biso   1.000  H
  H29      1.0000 0.42598  0.33417  0.74708  Biso   1.000  H
  H30      1.0000 0.57402  0.66583  0.25292  Biso   1.000  H
  H31      1.0000 0.92598  0.16583  0.75292  Biso   1.000  H
  H32      1.0000 0.07402  0.83417  0.24708  Biso   1.000  H
  H33      1.0000 0.71484  0.14666  0.88408  Biso   1.000  H
  H34      1.0000 0.28516  0.85334  0.11592  Biso   1.000  H
  H35      1.0000 0.21484  0.35334  0.61592  Biso   1.000  H
  H36      1.0000 0.78516  0.64666  0.38408  Biso   1.000  H
  H37      1.0000 0.42319  0.14094  0.69438  Biso   1.000  H
  H38      1.0000 0.57681  0.85906  0.30562  Biso   1.000  H
  H39      1.0000 0.92319  0.35906  0.80562  Biso   1.000  H
  H40      1.0000 0.07681  0.64094  0.19438  Biso   1.000  H
  H41      1.0000 0.41595  0.92986  0.63804  Biso   1.000  H
  H42      1.0000 0.58405  0.07014  0.36196  Biso   1.000  H
  H43      1.0000 0.91595  0.57014  0.86196  Biso   1.000  H
  H44      1.0000 0.08405  0.42986  0.13804  Biso   1.000  H
  H45      1.0000 0.69643  0.74947  0.77598  Biso   1.000  H
  H46      1.0000 0.30357  0.25053  0.22402  Biso   1.000  H
  H47      1.0000 0.19643  0.75053  0.72402  Biso   1.000  H
  H48      1.0000 0.80357  0.24947  0.27598  Biso   1.000  H
  H49      1.0000 0.70368  0.96114  0.83217  Biso   1.000  H
  H50      1.0000 0.29632  0.03886  0.16783  Biso   1.000  H
  H51      1.0000 0.20368  0.53886  0.66783  Biso   1.000  H
  H52      1.0000 0.79632  0.46114  0.33217  Biso   1.000  H
  H53      1.0000 0.39075  0.75538  0.59659  Biso   1.000  H
  H54      1.0000 0.60925  0.24462  0.40341  Biso   1.000  H
  H55      1.0000 0.89075  0.74462  0.90341  Biso   1.000  H
  H56      1.0000 0.10925  0.25538  0.09659  Biso   1.000  H
  H57      1.0000 0.38925  0.54330  0.53838  Biso   1.000  H
  H58      1.0000 0.61075  0.45670  0.46162  Biso   1.000  H
  H59      1.0000 0.88925  0.95670  0.96162  Biso   1.000  H
  H60      1.0000 0.11075  0.04330  0.03838  Biso   1.000  H
  H61      1.0000 0.54881  0.34769  0.57250  Biso   1.000  H
  H62      1.0000 0.45119  0.65231  0.42750  Biso   1.000  H
  H63      1.0000 0.04881  0.15231  0.92750  Biso   1.000  H
  H64      1.0000 0.95119  0.84769  0.07250  Biso   1.000  H
  H65      1.0000 0.71085  0.37194  0.66762  Biso   1.000  H
  H66      1.0000 0.28915  0.62806  0.33238  Biso   1.000  H
  H67      1.0000 0.21085  0.12806  0.83238  Biso   1.000  H
  H68      1.0000 0.78915  0.87194  0.16762  Biso   1.000  H
  H69      1.0000 0.71463  0.58373  0.72591  Biso   1.000  H
  H70      1.0000 0.28537  0.41627  0.27409  Biso   1.000  H
  H71      1.0000 0.21463  0.91627  0.77409  Biso   1.000  H
  H72      1.0000 0.78537  0.08373  0.22591  Biso   1.000  H
  C1       1.0000 0.77233  0.37983  0.97814  Biso   1.000  C
  C2       1.0000 0.22767  0.62017  0.02186  Biso   1.000  C
  C3       1.0000 0.27233  0.12017  0.52186  Biso   1.000  C
  C4       1.0000 0.72767  0.87983  0.47814  Biso   1.000  C
  C5       1.0000 0.67965  0.43151  0.93222  Biso   1.000  C
  C6       1.0000 0.32035  0.56849  0.06778  Biso   1.000  C
  C7       1.0000 0.17965  0.06849  0.56778  Biso   1.000  C
  C8       1.0000 0.82035  0.93151  0.43222  Biso   1.000  C
  C9       1.0000 0.81109  0.45755  0.02981  Biso   1.000  C
  C10      1.0000 0.18891  0.54245  0.97019  Biso   1.000  C
  C11      1.0000 0.31109  0.04245  0.47019  Biso   1.000  C
  C12      1.0000 0.68891  0.95755  0.52981  Biso   1.000  C
  C13      1.0000 0.75923  0.58886  0.03692  Biso   1.000  C
  C14      1.0000 0.24077  0.41114  0.96308  Biso   1.000  C
  C15      1.0000 0.25923  0.91114  0.46308  Biso   1.000  C
  C16      1.0000 0.74077  0.08886  0.53692  Biso   1.000  C
  C17      1.0000 0.66698  0.64685  0.99149  Biso   1.000  C
  C18      1.0000 0.33302  0.35315  0.00851  Biso   1.000  C
  C19      1.0000 0.16698  0.85315  0.50851  Biso   1.000  C
  C20      1.0000 0.83302  0.14685  0.49149  Biso   1.000  C
  C21      1.0000 0.60797  0.78054  0.99802  Biso   1.000  C
  C22      1.0000 0.39203  0.21946  0.00198  Biso   1.000  C
  C23      1.0000 0.10797  0.71946  0.50198  Biso   1.000  C
  C24      1.0000 0.89203  0.28054  0.49802  Biso   1.000  C
  C25      1.0000 0.51584  0.83510  0.95367  Biso   1.000  C
  C26      1.0000 0.48416  0.16490  0.04633  Biso   1.000  C
  C27      1.0000 0.01584  0.66490  0.54633  Biso   1.000  C
  C28      1.0000 0.98416  0.33510  0.45367  Biso   1.000  C
  C29      1.0000 0.47802  0.75859  0.90144  Biso   1.000  C
  C30      1.0000 0.52198  0.24141  0.09856  Biso   1.000  C
  C31      1.0000 0.97802  0.74141  0.59856  Biso   1.000  C
  C32      1.0000 0.02198  0.25859  0.40144  Biso   1.000  C
  C33      1.0000 0.53109  0.62633  0.89317  Biso   1.000  C
  C34      1.0000 0.46891  0.37367  0.10683  Biso   1.000  C
  C35      1.0000 0.03109  0.87367  0.60683  Biso   1.000  C
  C36      1.0000 0.96891  0.12633  0.39317  Biso   1.000  C
  C37      1.0000 0.48503  0.54787  0.84046  Biso   1.000  C
  C38      1.0000 0.51497  0.45213  0.15954  Biso   1.000  C
  C39      1.0000 0.98503  0.95213  0.65954  Biso   1.000  C
  C40      1.0000 0.01497  0.04787  0.34046  Biso   1.000  C
  C41      1.0000 0.53045  0.41662  0.83362  Biso   1.000  C
  C42      1.0000 0.46955  0.58338  0.16638  Biso   1.000  C
  C43      1.0000 0.03045  0.08338  0.66638  Biso   1.000  C
  C44      1.0000 0.96955  0.91662  0.33362  Biso   1.000  C
  C45      1.0000 0.49661  0.31700  0.78697  Biso   1.000  C
  C46      1.0000 0.50339  0.68300  0.21303  Biso   1.000  C
  C47      1.0000 0.99661  0.18300  0.71303  Biso   1.000  C
  C48      1.0000 0.00339  0.81700  0.28697  Biso   1.000  C
  C49      1.0000 0.56803  0.19829  0.80274  Biso   1.000  C
  C50      1.0000 0.43197  0.80171  0.19726  Biso   1.000  C
  C51      1.0000 0.06803  0.30171  0.69726  Biso   1.000  C
  C52      1.0000 0.93197  0.69829  0.30274  Biso   1.000  C
  C53      1.0000 0.64902  0.22194  0.86052  Biso   1.000  C
  C54      1.0000 0.35098  0.77806  0.13948  Biso   1.000  C
  C55      1.0000 0.14902  0.27806  0.63948  Biso   1.000  C
  C56      1.0000 0.85098  0.72194  0.36052  Biso   1.000  C
  C57      1.0000 0.62766  0.56807  0.93858  Biso   1.000  C
  C58      1.0000 0.37234  0.43193  0.06142  Biso   1.000  C
  C59      1.0000 0.12766  0.93193  0.56142  Biso   1.000  C
  C60      1.0000 0.87234  0.06807  0.43858  Biso   1.000  C
  C61      1.0000 0.62820  0.35386  0.87945  Biso   1.000  C
  C62      1.0000 0.37180  0.64614  0.12055  Biso   1.000  C
  C63      1.0000 0.12820  0.14614  0.62055  Biso   1.000  C
  C64      1.0000 0.87180  0.85386  0.37945  Biso   1.000  C
  C65      1.0000 0.56444  0.07056  0.76849  Biso   1.000  C
  C66      1.0000 0.43556  0.92944  0.23151  Biso   1.000  C
  C67      1.0000 0.06444  0.42944  0.73151  Biso   1.000  C
  C68      1.0000 0.93556  0.57056  0.26849  Biso   1.000  C
  C69      1.0000 0.48466  0.05585  0.71278  Biso   1.000  C
  C70      1.0000 0.51534  0.94415  0.28722  Biso   1.000  C
  C71      1.0000 0.98466  0.44415  0.78722  Biso   1.000  C
  C72      1.0000 0.01534  0.55585  0.21278  Biso   1.000  C
  C73      1.0000 0.48079  0.93414  0.68048  Biso   1.000  C
  C74      1.0000 0.51921  0.06586  0.31952  Biso   1.000  C
  C75      1.0000 0.98079  0.56586  0.81952  Biso   1.000  C
  C76      1.0000 0.01921  0.43414  0.18048  Biso   1.000  C
  C77      1.0000 0.55668  0.81891  0.70134  Biso   1.000  C
  C78      1.0000 0.44332  0.18109  0.29866  Biso   1.000  C
  C79      1.0000 0.05668  0.68109  0.79866  Biso   1.000  C
  C80      1.0000 0.94332  0.31891  0.20134  Biso   1.000  C
  C81      1.0000 0.63595  0.83406  0.75700  Biso   1.000  C
  C82      1.0000 0.36405  0.16594  0.24300  Biso   1.000  C
  C83      1.0000 0.13595  0.66594  0.74300  Biso   1.000  C
  C84      1.0000 0.86405  0.33406  0.25700  Biso   1.000  C
  C85      1.0000 0.63998  0.95592  0.78949  Biso   1.000  C
  C86      1.0000 0.36002  0.04408  0.21051  Biso   1.000  C
  C87      1.0000 0.13998  0.54408  0.71051  Biso   1.000  C
  C88      1.0000 0.86002  0.45592  0.28949  Biso   1.000  C
  C89      1.0000 0.55430  0.68948  0.66628  Biso   1.000  C
  C90      1.0000 0.44570  0.31052  0.33372  Biso   1.000  C
  C91      1.0000 0.05430  0.81052  0.83372  Biso   1.000  C
  C92      1.0000 0.94570  0.18948  0.16628  Biso   1.000  C
  C93      1.0000 0.46388  0.67329  0.61262  Biso   1.000  C
  C94      1.0000 0.53612  0.32671  0.38738  Biso   1.000  C
  C95      1.0000 0.96388  0.82671  0.88738  Biso   1.000  C
  C96      1.0000 0.03612  0.17329  0.11262  Biso   1.000  C
  C97      1.0000 0.46247  0.55221  0.57925  Biso   1.000  C
  C98      1.0000 0.53753  0.44779  0.42075  Biso   1.000  C
  C99      1.0000 0.96247  0.94779  0.92075  Biso   1.000  C
  C100     1.0000 0.03753  0.05221  0.07925  Biso   1.000  C
  C101     1.0000 0.55128  0.44273  0.59842  Biso   1.000  C
  C102     1.0000 0.44872  0.55726  0.40158  Biso   1.000  C
  C103     1.0000 0.05128  0.05727  0.90158  Biso   1.000  C
  C104     1.0000 0.94872  0.94274  0.09842  Biso   1.000  C
  C105     1.0000 0.64132  0.45617  0.65155  Biso   1.000  C
  C106     1.0000 0.35868  0.54383  0.34845  Biso   1.000  C
  C107     1.0000 0.14132  0.04383  0.84845  Biso   1.000  C
  C108     1.0000 0.85868  0.95617  0.15155  Biso   1.000  C
  C109     1.0000 0.64264  0.57754  0.68485  Biso   1.000  C
  C110     1.0000 0.35736  0.42246  0.31515  Biso   1.000  C
  C111     1.0000 0.14264  0.92246  0.81515  Biso   1.000  C
  C112     1.0000 0.85736  0.07754  0.18485  Biso   1.000  C
